tests/data/power_flow/pv-node/pv-node-pq-switching/sym_output.json
{
    "version": "1.0",
    "type": "sym_output",
    "is_batch": false,
    "attributes": {},
    "data": {
        "node": [
            {
                "id": 10,
                "energized": 1,
                "u_pu": 1.015,
                "u": 111650.0,
                "u_angle": 0.0
            },
            {
                "id": 20,
                "energized": 1,
                "u_pu": 1.02,
                "u": 112200.0,
                "u_angle": 3e-06
            },
            {
                "id": 30,
                "energized": 1,
                "u_pu": 1.02,
                "u": 112200.0,
                "u_angle": -0.004604
            },
            {
                "id": 40,
                "energized": 1,
                "u_pu": 1.01337,
                "u": 111470.688263,
                "u_angle": -0.021555
            }
        ],
        "sym_load": [
            {
                "id": 41,
                "energized": 1,
                "p": 62000000.0,
                "q": 5000000.0,
                "i": 322.164776,
                "s": 62201286.160336,
                "pf": 0.996764
            }
        ],
        "sym_gen": [
            {
                "id": 21,
                "energized": 1,
                "p": 20000000.0,
                "q": 11955320.971966,
                "i": 119.89976,
                "s": 23300851.905944,
                "pf": 0.858338
            },
            {
                "id": 31,
                "energized": 1,
                "p": 15000000.0,
                "q": 5251325.930005,
                "i": 81.779212,
                "s": 15892653.146128,
                "pf": 0.943832
            }
        ],
        "asym_gen": [
            {
                "id": 32,
                "energized": 1,
                "p": 32000000.0,
                "q": 5251325.930005,
                "i": 166.865647,
                "s": 32428019.119631,
                "pf": 0.986801
            }
        ],
        "source": [
            {
                "id": 11,
                "energized": 1,
                "p": -4645629.812648,
                "q": -16217677.176245,
                "i": 87.235695,
                "s": 16869941.592935,
                "pf": -0.275379
            }
        ],
        "voltage_regulator": [
            {
                "id": 29,
                "energized": 1,
                "limit_violated": 0
            },
            {
                "id": 39,
                "energized": 1,
                "limit_violated": 0
            },
            {
                "id": 38,
                "energized": 1,
                "limit_violated": 0
            }
        ]
    }
}