tests/data/power_flow/pv-node/pv-node-pq-switching/sym_output_batch.json
{
  "version": "1.0",
  "type": "sym_output",
  "is_batch": true,
  "attributes": {},
  "data": [
    {
      "node": [
        {
          "id": 10,
          "energized": 1,
          "u_pu": 1.015,
          "u": 111650.0,
          "u_angle": 0.0
        },
        {
          "id": 20,
          "energized": 1,
          "u_pu": 1.019865,
          "u": 112185.124232,
          "u_angle": 4.2e-05
        },
        {
          "id": 30,
          "energized": 1,
          "u_pu": 1.02,
          "u": 112200.0,
          "u_angle": -0.004605
        },
        {
          "id": 40,
          "energized": 1,
          "u_pu": 1.01337,
          "u": 111470.688263,
          "u_angle": -0.021556
        }
      ],
      "sym_load": [
        {
          "id": 41,
          "energized": 1,
          "p": 62000000.0,
          "q": 5000000.0,
          "i": 322.164776,
          "s": 62201286.160336,
          "pf": 0.996764
        }
      ],
      "sym_gen": [
        {
          "id": 21,
          "energized": 1,
          "p": 20000000.0,
          "q": 11000000.0,
          "i": 117.468916,
          "s": 22825424.421027,
          "pf": 0.876216
        },
        {
          "id": 31,
          "energized": 1,
          "p": 15000000.0,
          "q": 5490081.404607,
          "i": 82.193342,
          "s": 15973133.500638,
          "pf": 0.939077
        }
      ],
      "asym_gen": [
        {
          "id": 32,
          "energized": 1,
          "p": 32000000.0,
          "q": 5490081.404607,
          "i": 167.068998,
          "s": 32467537.538736,
          "pf": 0.9856
        }
      ],
      "source": [
        {
          "id": 11,
          "energized": 1,
          "p": -4646493.580183,
          "q": -15742890.339856,
          "i": 84.879421,
          "s": 16414277.286661,
          "pf": -0.283076
        }
      ],
      "voltage_regulator": [
        {
          "id": 29,
          "energized": 1,
          "limit_violated": 2
        },
        {
          "id": 39,
          "energized": 1,
          "limit_violated": 0
        },
        {
          "id": 38,
          "energized": 1,
          "limit_violated": 0
        }
      ]
    },
    {
      "node": [
        {
          "id": 10,
          "energized": 1,
          "u_pu": 1.025,
          "u": 112750.0,
          "u_angle": 0.0
        },
        {
          "id": 20,
          "energized": 1,
          "u_pu": 1.021179,
          "u": 112329.653997,
          "u_angle": 0.00246
        },
        {
          "id": 30,
          "energized": 1,
          "u_pu": 1.02,
          "u": 112200.0,
          "u_angle": -0.001812
        },
        {
          "id": 40,
          "energized": 1,
          "u_pu": 1.01337,
          "u": 111470.688263,
          "u_angle": -0.018763
        }
      ],
      "sym_load": [
        {
          "id": 41,
          "energized": 1,
          "p": 62000000.0,
          "q": 5000000.0,
          "i": 322.164776,
          "s": 62201286.160336,
          "pf": 0.996764
        }
      ],
      "sym_gen": [
        {
          "id": 21,
          "energized": 1,
          "p": 20000000.0,
          "q": -15000000.0,
          "i": 128.494625,
          "s": 25000000.0,
          "pf": 0.8
        },
        {
          "id": 31,
          "energized": 1,
          "p": 15000000.0,
          "q": 3170497.5905,
          "i": 78.891196,
          "s": 15331407.468702,
          "pf": 0.978384
        }
      ],
      "asym_gen": [
        {
          "id": 32,
          "energized": 1,
          "p": 32000000.0,
          "q": 3170497.5905,
          "i": 165.469409,
          "s": 32156679.787742,
          "pf": 0.995128
        }
      ],
      "source": [
        {
          "id": 11,
          "energized": 1,
          "p": -4650881.216285,
          "q": 14880920.562003,
          "i": 79.834522,
          "s": 15590782.304318,
          "pf": -0.29831
        }
      ],
      "voltage_regulator": [
        {
          "id": 29,
          "energized": 1,
          "limit_violated": 1
        },
        {
          "id": 39,
          "energized": 1,
          "limit_violated": 0
        },
        {
          "id": 38,
          "energized": 1,
          "limit_violated": 0
        }
      ]
    },
    {
      "node": [
        {
          "id": 10,
          "energized": 1,
          "u_pu": 1.015,
          "u": 111650.0,
          "u_angle": 0.0
        },
        {
          "id": 20,
          "energized": 1,
          "u_pu": 1.02,
          "u": 112200.0,
          "u_angle": 4e-06
        },
        {
          "id": 30,
          "energized": 1,
          "u_pu": 1.018722,
          "u": 112059.449794,
          "u_angle": -0.004252
        },
        {
          "id": 40,
          "energized": 1,
          "u_pu": 1.012083,
          "u": 111329.170186,
          "u_angle": -0.021246
        }
      ],
      "sym_load": [
        {
          "id": 41,
          "energized": 1,
          "p": 62000000.0,
          "q": 5000000.0,
          "i": 322.574301,
          "s": 62201286.160336,
          "pf": 0.996764
        }
      ],
      "sym_gen": [
        {
          "id": 21,
          "energized": 1,
          "p": 20000000.0,
          "q": 16455302.3925,
          "i": 133.270979,
          "s": 25899362.479193,
          "pf": 0.77222
        },
        {
          "id": 31,
          "energized": 1,
          "p": 15000000.0,
          "q": 3000000.0,
          "i": 78.813174,
          "s": 15297058.540778,
          "pf": 0.980581
        }
      ],
      "asym_gen": [
        {
          "id": 32,
          "energized": 1,
          "p": 32000000.0,
          "q": 3000000.0,
          "i": 165.592647,
          "s": 32140317.359976,
          "pf": 0.995634
        }
      ],
      "source": [
        {
          "id": 11,
          "energized": 1,
          "p": -4646335.211057,
          "q": -16217475.631201,
          "i": 87.235697,
          "s": 16869942.108439,
          "pf": -0.275421
        }
      ],
      "voltage_regulator": [
        {
          "id": 29,
          "energized": 1,
          "limit_violated": 0
        },
        {
          "id": 39,
          "energized": 1,
          "limit_violated": 2
        },
        {
          "id": 38,
          "energized": 1,
          "limit_violated": 2
        }
      ]
    },
    {
      "node": [
        {
          "id": 10,
          "energized": 1,
          "u_pu": 1.015,
          "u": 111650.0,
          "u_angle": 0.0
        },
        {
          "id": 20,
          "energized": 1,
          "u_pu": 1.02,
          "u": 112200.0,
          "u_angle": 3e-06
        },
        {
          "id": 30,
          "energized": 1,
          "u_pu": 1.02,
          "u": 112200.0,
          "u_angle": -0.004604
        },
        {
          "id": 40,
          "energized": 1,
          "u_pu": 1.01337,
          "u": 111470.688263,
          "u_angle": -0.021555
        }
      ],
      "sym_load": [
        {
          "id": 41,
          "energized": 1,
          "p": 62000000.0,
          "q": 5000000.0,
          "i": 322.164776,
          "s": 62201286.160336,
          "pf": 0.996764
        }
      ],
      "sym_gen": [
        {
          "id": 21,
          "energized": 1,
          "p": 20000000.0,
          "q": 11955320.971966,
          "i": 119.89976,
          "s": 23300851.905944,
          "pf": 0.858338
        },
        {
          "id": 31,
          "energized": 1,
          "p": 15000000.0,
          "q": 7502651.86001,
          "i": 86.302524,
          "s": 16771695.946818,
          "pf": 0.894364
        }
      ],
      "asym_gen": [
        {
          "id": 32,
          "energized": 1,
          "p": 32000000.0,
          "q": 3000000.0,
          "i": 165.385213,
          "s": 32140317.359976,
          "pf": 0.995634
        }
      ],
      "source": [
        {
          "id": 11,
          "energized": 1,
          "p": -4645629.812648,
          "q": -16217677.176245,
          "i": 87.235695,
          "s": 16869941.592935,
          "pf": -0.275379
        }
      ],
      "voltage_regulator": [
        {
          "id": 29,
          "energized": 1,
          "limit_violated": 0
        },
        {
          "id": 39,
          "energized": 1,
          "limit_violated": 0
        },
        {
          "id": 38,
          "energized": 1,
          "limit_violated": 0
        }
      ]
    },
    {
      "node": [
        {
          "id": 10,
          "energized": 1,
          "u_pu": 1.015,
          "u": 111650.0,
          "u_angle": 0.0
        },
        {
          "id": 20,
          "energized": 1,
          "u_pu": 1.02,
          "u": 112200.0,
          "u_angle": -2e-05
        },
        {
          "id": 30,
          "energized": 1,
          "u_pu": 1.014097,
          "u": 111550.663431,
          "u_angle": -0.003016
        },
        {
          "id": 40,
          "energized": 1,
          "u_pu": 1.001638,
          "u": 110180.183178,
          "u_angle": -0.018638
        }
      ],
      "sym_load": [
        {
          "id": 41,
          "energized": 1,
          "p": 62000000.0,
          "q": 25000000.0,
          "i": 350.300744,
          "s": 66850579.653433,
          "pf": 0.927441
        }
      ],
      "sym_gen": [
        {
          "id": 21,
          "energized": 1,
          "p": 20000000.0,
          "q": 32749069.666738,
          "i": 197.457847,
          "s": 38373188.087998,
          "pf": 0.521197
        },
        {
          "id": 31,
          "energized": 1,
          "p": 15000000.0,
          "q": 5000000.0,
          "i": 81.834648,
          "s": 15811388.300842,
          "pf": 0.948683
        }
      ],
      "asym_gen": [
        {
          "id": 32,
          "energized": 1,
          "p": 32000000.0,
          "q": 5000000.0,
          "i": 167.631241,
          "s": 32388269.481403,
          "pf": 0.988012
        }
      ],
      "source": [
        {
          "id": 11,
          "energized": 1,
          "p": -4568736.127575,
          "q": -16239646.113248,
          "i": 87.236388,
          "s": 16870075.746331,
          "pf": -0.270819
        }
      ],
      "voltage_regulator": [
        {
          "id": 29,
          "energized": 1,
          "limit_violated": 0
        },
        {
          "id": 39,
          "energized": 1,
          "limit_violated": 2
        },
        {
          "id": 38,
          "energized": 1,
          "limit_violated": 2
        }
      ]
    },
    {
      "node": [
        {
          "id": 10,
          "energized": 1,
          "u_pu": 1.015,
          "u": 111650.0,
          "u_angle": 0.0
        },
        {
          "id": 20,
          "energized": 1,
          "u_pu": 1.02,
          "u": 112200.0,
          "u_angle": -1.3e-05
        },
        {
          "id": 30,
          "energized": 1,
          "u_pu": 1.02,
          "u": 112200.0,
          "u_angle": -0.004636
        },
        {
          "id": 40,
          "energized": 1,
          "u_pu": 1.007616,
          "u": 110837.809267,
          "u_angle": -0.020075
        }
      ],
      "sym_load": [
        {
          "id": 41,
          "energized": 1,
          "p": 62000000.0,
          "q": 25000000.0,
          "i": 348.22233,
          "s": 66850579.653433,
          "pf": 0.927441
        }
      ],
      "sym_gen": [
        {
          "id": 21,
          "energized": 1,
          "p": 20000000.0,
          "q": 11955583.197515,
          "i": 119.900453,
          "s": 23300986.451065,
          "pf": 0.858333
        },
        {
          "id": 31,
          "energized": 1,
          "p": 15000000.0,
          "q": 5000000.0,
          "i": 81.361045,
          "s": 15811388.300842,
          "pf": 0.948683
        }
      ],
      "asym_gen": [
        {
          "id": 32,
          "energized": 1,
          "p": 32000000.0,
          "q": 25701307.756104,
          "i": 211.197805,
          "s": 41043357.810661,
          "pf": 0.779663
        }
      ],
      "source": [
        {
          "id": 11,
          "energized": 1,
          "p": -4593085.33433,
          "q": -16232689.623774,
          "i": 87.235958,
          "s": 16869992.451398,
          "pf": -0.272264
        }
      ],
      "voltage_regulator": [
        {
          "id": 29,
          "energized": 1,
          "limit_violated": 0
        },
        {
          "id": 39,
          "energized": 1,
          "limit_violated": 0
        },
        {
          "id": 38,
          "energized": 1,
          "limit_violated": 0
        }
      ]
    },
    {
      "node": [
        {
          "id": 10,
          "energized": 1,
          "u_pu": 1.015,
          "u": 111650.0,
          "u_angle": 0.0
        },
        {
          "id": 20,
          "energized": 1,
          "u_pu": 1.02,
          "u": 112200.0,
          "u_angle": 3e-06
        },
        {
          "id": 30,
          "energized": 1,
          "u_pu": 1.02,
          "u": 112200.0,
          "u_angle": -0.004604
        },
        {
          "id": 40,
          "energized": 1,
          "u_pu": 1.01337,
          "u": 111470.688263,
          "u_angle": -0.021555
        }
      ],
      "sym_load": [
        {
          "id": 41,
          "energized": 1,
          "p": 62000000.0,
          "q": 5000000.0,
          "i": 322.164776,
          "s": 62201286.160336,
          "pf": 0.996764
        }
      ],
      "sym_gen": [
        {
          "id": 21,
          "energized": 1,
          "p": 20000000.0,
          "q": 11955320.971966,
          "i": 119.89976,
          "s": 23300851.905944,
          "pf": 0.858338
        },
        {
          "id": 31,
          "energized": 1,
          "p": 15000000.0,
          "q": 0.0,
          "i": 77.185865,
          "s": 15000000.0,
          "pf": 1.0
        }
      ],
      "asym_gen": [
        {
          "id": 32,
          "energized": 1,
          "p": 32000000.0,
          "q": 10502651.86001,
          "i": 173.305191,
          "s": 33679455.103855,
          "pf": 0.950134
        }
      ],
      "source": [
        {
          "id": 11,
          "energized": 1,
          "p": -4645629.812648,
          "q": -16217677.176245,
          "i": 87.235695,
          "s": 16869941.592935,
          "pf": -0.275379
        }
      ],
      "voltage_regulator": [
        {
          "id": 29,
          "energized": 1,
          "limit_violated": 0
        },
        {
          "id": 39,
          "energized": 0,
          "limit_violated": 0
        },
        {
          "id": 38,
          "energized": 1,
          "limit_violated": 0
        }
      ]
    },
    {
      "node": [
        {
          "id": 10,
          "energized": 1,
          "u_pu": 1.015,
          "u": 111650.0,
          "u_angle": 0.0
        },
        {
          "id": 20,
          "energized": 1,
          "u_pu": 1.02,
          "u": 112200.0,
          "u_angle": 2e-06
        },
        {
          "id": 30,
          "energized": 1,
          "u_pu": 1.017014,
          "u": 111871.586658,
          "u_angle": -0.003782
        },
        {
          "id": 40,
          "energized": 1,
          "u_pu": 1.010364,
          "u": 111140.009251,
          "u_angle": -0.020834
        }
      ],
      "sym_load": [
        {
          "id": 41,
          "energized": 1,
          "p": 62000000.0,
          "q": 5000000.0,
          "i": 323.123325,
          "s": 62201286.160336,
          "pf": 0.996764
        }
      ],
      "sym_gen": [
        {
          "id": 21,
          "energized": 1,
          "p": 20000000.0,
          "q": 22470815.284685,
          "i": 154.794604,
          "s": 30082179.767405,
          "pf": 0.664845
        },
        {
          "id": 31,
          "energized": 1,
          "p": 15000000.0,
          "q": 0.0,
          "i": 77.412454,
          "s": 15000000.0,
          "pf": 1.0
        }
      ],
      "asym_gen": [
        {
          "id": 32,
          "energized": 1,
          "p": 32000000.0,
          "q": 0.0,
          "i": 165.146568,
          "s": 32000000.0,
          "pf": 1.0
        }
      ],
      "source": [
        {
          "id": 11,
          "energized": 1,
          "p": -4642237.469405,
          "q": -16218646.4276,
          "i": 87.235684,
          "s": 16869939.557268,
          "pf": -0.275178
        }
      ],
      "voltage_regulator": [
        {
          "id": 29,
          "energized": 1,
          "limit_violated": 0
        },
        {
          "id": 39,
          "energized": 0,
          "limit_violated": 0
        },
        {
          "id": 38,
          "energized": 0,
          "limit_violated": 0
        }
      ]
    },
    {
      "node": [
        {
          "id": 10,
          "energized": 1,
          "u_pu": 1.015,
          "u": 111650.0,
          "u_angle": 0.0
        },
        {
          "id": 20,
          "energized": 1,
          "u_pu": 1.019588,
          "u": 112154.718595,
          "u_angle": 0.00012
        },
        {
          "id": 30,
          "energized": 1,
          "u_pu": 1.019446,
          "u": 112139.009079,
          "u_angle": -0.004452
        },
        {
          "id": 40,
          "energized": 1,
          "u_pu": 1.012812,
          "u": 111409.277663,
          "u_angle": -0.021422
        }
      ],
      "sym_load": [
        {
          "id": 41,
          "energized": 1,
          "p": 62000000.0,
          "q": 5000000.0,
          "i": 322.342358,
          "s": 62201286.160336,
          "pf": 0.996764
        }
      ],
      "sym_gen": [
        {
          "id": 21,
          "energized": 1,
          "p": 20000000.0,
          "q": 11000000.0,
          "i": 117.500762,
          "s": 22825424.421027,
          "pf": 0.876216
        },
        {
          "id": 31,
          "energized": 1,
          "p": 15000000.0,
          "q": 5000000.0,
          "i": 81.405297,
          "s": 15811388.300842,
          "pf": 0.948683
        }
      ],
      "asym_gen": [
        {
          "id": 32,
          "energized": 1,
          "p": 32000000.0,
          "q": 5000000.0,
          "i": 166.751751,
          "s": 32388269.481403,
          "pf": 0.988012
        }
      ],
      "source": [
        {
          "id": 11,
          "energized": 1,
          "p": -4649188.019269,
          "q": -14772158.06744,
          "i": 80.081804,
          "s": 15486497.448033,
          "pf": -0.300209
        }
      ],
      "voltage_regulator": [
        {
          "id": 29,
          "energized": 1,
          "limit_violated": 2
        },
        {
          "id": 39,
          "energized": 1,
          "limit_violated": 2
        },
        {
          "id": 38,
          "energized": 1,
          "limit_violated": 2
        }
      ]
    }
  ]
}